// Generated for: spectre
// Generated on: Dec 31 18:43:31 2019
// Design library name: posh_test_circuits
// Design cell name: tb_DTC_PNinj
// Design view name: schematic
simulator lang=spectre
global 0
parameters nf_cap nf_dif res nf_load dtc_gain_m=32 \
    PN_CML_bias_pside_small=30u phi_df_frac_retimed_0=0 \
    PN_CML_bias_300u_pside=240u PN_inj_bias_100u_pside=100u dtc_offset=32 \
    phi_df_frac_retimed=63 fref=40M dtc_gain=254
include "/home/qiaochuz/workarea_TSMC65_9M/tsmcN65_mc_mcdell0.scs" section=MC_TT

// Library name: posh_test_circuits
// Cell name: DTC_offset_v3
// View name: schematic
subckt DTC_offset_v3_schematic IL_gnd dtc_offset_m\<5\> dtc_offset_m\<4\> \
        dtc_offset_m\<3\> dtc_offset_m\<2\> dtc_offset_m\<1\> \
        dtc_offset_m\<0\> offset_node\+ offset_node\-
    C25\<1\> (IL_gnd net031\<0\>) capacitor c=0.0592797f*nf_cap*nf_cap
    C25\<0\> (IL_gnd net031\<1\>) capacitor c=0.0592797f*nf_cap*nf_cap
    C24\<31\> (offset_node\- net024\<0\>) capacitor \
        c=0.0592797f*nf_cap*nf_cap
    C24\<30\> (offset_node\- net024\<1\>) capacitor \
        c=0.0592797f*nf_cap*nf_cap
    C24\<29\> (offset_node\- net024\<2\>) capacitor \
        c=0.0592797f*nf_cap*nf_cap
    C24\<28\> (offset_node\- net024\<3\>) capacitor \
        c=0.0592797f*nf_cap*nf_cap
    C24\<27\> (offset_node\- net024\<4\>) capacitor \
        c=0.0592797f*nf_cap*nf_cap
    C24\<26\> (offset_node\- net024\<5\>) capacitor \
        c=0.0592797f*nf_cap*nf_cap
    C24\<25\> (offset_node\- net024\<6\>) capacitor \
        c=0.0592797f*nf_cap*nf_cap
    C24\<24\> (offset_node\- net024\<7\>) capacitor \
        c=0.0592797f*nf_cap*nf_cap
    C24\<23\> (offset_node\- net024\<8\>) capacitor \
        c=0.0592797f*nf_cap*nf_cap
    C24\<22\> (offset_node\- net024\<9\>) capacitor \
        c=0.0592797f*nf_cap*nf_cap
    C24\<21\> (offset_node\- net024\<10\>) capacitor \
        c=0.0592797f*nf_cap*nf_cap
    C24\<20\> (offset_node\- net024\<11\>) capacitor \
        c=0.0592797f*nf_cap*nf_cap
    C24\<19\> (offset_node\- net024\<12\>) capacitor \
        c=0.0592797f*nf_cap*nf_cap
    C24\<18\> (offset_node\- net024\<13\>) capacitor \
        c=0.0592797f*nf_cap*nf_cap
    C24\<17\> (offset_node\- net024\<14\>) capacitor \
        c=0.0592797f*nf_cap*nf_cap
    C24\<16\> (offset_node\- net024\<15\>) capacitor \
        c=0.0592797f*nf_cap*nf_cap
    C24\<15\> (offset_node\- net024\<16\>) capacitor \
        c=0.0592797f*nf_cap*nf_cap
    C24\<14\> (offset_node\- net024\<17\>) capacitor \
        c=0.0592797f*nf_cap*nf_cap
    C24\<13\> (offset_node\- net024\<18\>) capacitor \
        c=0.0592797f*nf_cap*nf_cap
    C24\<12\> (offset_node\- net024\<19\>) capacitor \
        c=0.0592797f*nf_cap*nf_cap
    C24\<11\> (offset_node\- net024\<20\>) capacitor \
        c=0.0592797f*nf_cap*nf_cap
    C24\<10\> (offset_node\- net024\<21\>) capacitor \
        c=0.0592797f*nf_cap*nf_cap
    C24\<9\> (offset_node\- net024\<22\>) capacitor \
        c=0.0592797f*nf_cap*nf_cap
    C24\<8\> (offset_node\- net024\<23\>) capacitor \
        c=0.0592797f*nf_cap*nf_cap
    C24\<7\> (offset_node\- net024\<24\>) capacitor \
        c=0.0592797f*nf_cap*nf_cap
    C24\<6\> (offset_node\- net024\<25\>) capacitor \
        c=0.0592797f*nf_cap*nf_cap
    C24\<5\> (offset_node\- net024\<26\>) capacitor \
        c=0.0592797f*nf_cap*nf_cap
    C24\<4\> (offset_node\- net024\<27\>) capacitor \
        c=0.0592797f*nf_cap*nf_cap
    C24\<3\> (offset_node\- net024\<28\>) capacitor \
        c=0.0592797f*nf_cap*nf_cap
    C24\<2\> (offset_node\- net024\<29\>) capacitor \
        c=0.0592797f*nf_cap*nf_cap
    C24\<1\> (offset_node\- net024\<30\>) capacitor \
        c=0.0592797f*nf_cap*nf_cap
    C24\<0\> (offset_node\- net024\<31\>) capacitor \
        c=0.0592797f*nf_cap*nf_cap
    C23\<3\> (offset_node\- net018\<0\>) capacitor \
        c=0.0592797f*nf_cap*nf_cap
    C23\<2\> (offset_node\- net018\<1\>) capacitor \
        c=0.0592797f*nf_cap*nf_cap
    C23\<1\> (offset_node\- net018\<2\>) capacitor \
        c=0.0592797f*nf_cap*nf_cap
    C23\<0\> (offset_node\- net018\<3\>) capacitor \
        c=0.0592797f*nf_cap*nf_cap
    C22\<15\> (offset_node\- net022\<0\>) capacitor \
        c=0.0592797f*nf_cap*nf_cap
    C22\<14\> (offset_node\- net022\<1\>) capacitor \
        c=0.0592797f*nf_cap*nf_cap
    C22\<13\> (offset_node\- net022\<2\>) capacitor \
        c=0.0592797f*nf_cap*nf_cap
    C22\<12\> (offset_node\- net022\<3\>) capacitor \
        c=0.0592797f*nf_cap*nf_cap
    C22\<11\> (offset_node\- net022\<4\>) capacitor \
        c=0.0592797f*nf_cap*nf_cap
    C22\<10\> (offset_node\- net022\<5\>) capacitor \
        c=0.0592797f*nf_cap*nf_cap
    C22\<9\> (offset_node\- net022\<6\>) capacitor \
        c=0.0592797f*nf_cap*nf_cap
    C22\<8\> (offset_node\- net022\<7\>) capacitor \
        c=0.0592797f*nf_cap*nf_cap
    C22\<7\> (offset_node\- net022\<8\>) capacitor \
        c=0.0592797f*nf_cap*nf_cap
    C22\<6\> (offset_node\- net022\<9\>) capacitor \
        c=0.0592797f*nf_cap*nf_cap
    C22\<5\> (offset_node\- net022\<10\>) capacitor \
        c=0.0592797f*nf_cap*nf_cap
    C22\<4\> (offset_node\- net022\<11\>) capacitor \
        c=0.0592797f*nf_cap*nf_cap
    C22\<3\> (offset_node\- net022\<12\>) capacitor \
        c=0.0592797f*nf_cap*nf_cap
    C22\<2\> (offset_node\- net022\<13\>) capacitor \
        c=0.0592797f*nf_cap*nf_cap
    C22\<1\> (offset_node\- net022\<14\>) capacitor \
        c=0.0592797f*nf_cap*nf_cap
    C22\<0\> (offset_node\- net022\<15\>) capacitor \
        c=0.0592797f*nf_cap*nf_cap
    C21\<7\> (offset_node\- net020\<0\>) capacitor \
        c=0.0592797f*nf_cap*nf_cap
    C21\<6\> (offset_node\- net020\<1\>) capacitor \
        c=0.0592797f*nf_cap*nf_cap
    C21\<5\> (offset_node\- net020\<2\>) capacitor \
        c=0.0592797f*nf_cap*nf_cap
    C21\<4\> (offset_node\- net020\<3\>) capacitor \
        c=0.0592797f*nf_cap*nf_cap
    C21\<3\> (offset_node\- net020\<4\>) capacitor \
        c=0.0592797f*nf_cap*nf_cap
    C21\<2\> (offset_node\- net020\<5\>) capacitor \
        c=0.0592797f*nf_cap*nf_cap
    C21\<1\> (offset_node\- net020\<6\>) capacitor \
        c=0.0592797f*nf_cap*nf_cap
    C21\<0\> (offset_node\- net020\<7\>) capacitor \
        c=0.0592797f*nf_cap*nf_cap
    C20\<1\> (offset_node\- net016\<0\>) capacitor \
        c=0.0592797f*nf_cap*nf_cap
    C20\<0\> (offset_node\- net016\<1\>) capacitor \
        c=0.0592797f*nf_cap*nf_cap
    C19 (offset_node\- net025) capacitor c=0.0592797f*nf_cap*nf_cap
    C18\<31\> (offset_node\+ net026\<0\>) capacitor \
        c=0.0592797f*nf_cap*nf_cap
    C18\<30\> (offset_node\+ net026\<1\>) capacitor \
        c=0.0592797f*nf_cap*nf_cap
    C18\<29\> (offset_node\+ net026\<2\>) capacitor \
        c=0.0592797f*nf_cap*nf_cap
    C18\<28\> (offset_node\+ net026\<3\>) capacitor \
        c=0.0592797f*nf_cap*nf_cap
    C18\<27\> (offset_node\+ net026\<4\>) capacitor \
        c=0.0592797f*nf_cap*nf_cap
    C18\<26\> (offset_node\+ net026\<5\>) capacitor \
        c=0.0592797f*nf_cap*nf_cap
    C18\<25\> (offset_node\+ net026\<6\>) capacitor \
        c=0.0592797f*nf_cap*nf_cap
    C18\<24\> (offset_node\+ net026\<7\>) capacitor \
        c=0.0592797f*nf_cap*nf_cap
    C18\<23\> (offset_node\+ net026\<8\>) capacitor \
        c=0.0592797f*nf_cap*nf_cap
    C18\<22\> (offset_node\+ net026\<9\>) capacitor \
        c=0.0592797f*nf_cap*nf_cap
    C18\<21\> (offset_node\+ net026\<10\>) capacitor \
        c=0.0592797f*nf_cap*nf_cap
    C18\<20\> (offset_node\+ net026\<11\>) capacitor \
        c=0.0592797f*nf_cap*nf_cap
    C18\<19\> (offset_node\+ net026\<12\>) capacitor \
        c=0.0592797f*nf_cap*nf_cap
    C18\<18\> (offset_node\+ net026\<13\>) capacitor \
        c=0.0592797f*nf_cap*nf_cap
    C18\<17\> (offset_node\+ net026\<14\>) capacitor \
        c=0.0592797f*nf_cap*nf_cap
    C18\<16\> (offset_node\+ net026\<15\>) capacitor \
        c=0.0592797f*nf_cap*nf_cap
    C18\<15\> (offset_node\+ net026\<16\>) capacitor \
        c=0.0592797f*nf_cap*nf_cap
    C18\<14\> (offset_node\+ net026\<17\>) capacitor \
        c=0.0592797f*nf_cap*nf_cap
    C18\<13\> (offset_node\+ net026\<18\>) capacitor \
        c=0.0592797f*nf_cap*nf_cap
    C18\<12\> (offset_node\+ net026\<19\>) capacitor \
        c=0.0592797f*nf_cap*nf_cap
    C18\<11\> (offset_node\+ net026\<20\>) capacitor \
        c=0.0592797f*nf_cap*nf_cap
    C18\<10\> (offset_node\+ net026\<21\>) capacitor \
        c=0.0592797f*nf_cap*nf_cap
    C18\<9\> (offset_node\+ net026\<22\>) capacitor \
        c=0.0592797f*nf_cap*nf_cap
    C18\<8\> (offset_node\+ net026\<23\>) capacitor \
        c=0.0592797f*nf_cap*nf_cap
    C18\<7\> (offset_node\+ net026\<24\>) capacitor \
        c=0.0592797f*nf_cap*nf_cap
    C18\<6\> (offset_node\+ net026\<25\>) capacitor \
        c=0.0592797f*nf_cap*nf_cap
    C18\<5\> (offset_node\+ net026\<26\>) capacitor \
        c=0.0592797f*nf_cap*nf_cap
    C18\<4\> (offset_node\+ net026\<27\>) capacitor \
        c=0.0592797f*nf_cap*nf_cap
    C18\<3\> (offset_node\+ net026\<28\>) capacitor \
        c=0.0592797f*nf_cap*nf_cap
    C18\<2\> (offset_node\+ net026\<29\>) capacitor \
        c=0.0592797f*nf_cap*nf_cap
    C18\<1\> (offset_node\+ net026\<30\>) capacitor \
        c=0.0592797f*nf_cap*nf_cap
    C18\<0\> (offset_node\+ net026\<31\>) capacitor \
        c=0.0592797f*nf_cap*nf_cap
    C17\<15\> (offset_node\+ net023\<0\>) capacitor \
        c=0.0592797f*nf_cap*nf_cap
    C17\<14\> (offset_node\+ net023\<1\>) capacitor \
        c=0.0592797f*nf_cap*nf_cap
    C17\<13\> (offset_node\+ net023\<2\>) capacitor \
        c=0.0592797f*nf_cap*nf_cap
    C17\<12\> (offset_node\+ net023\<3\>) capacitor \
        c=0.0592797f*nf_cap*nf_cap
    C17\<11\> (offset_node\+ net023\<4\>) capacitor \
        c=0.0592797f*nf_cap*nf_cap
    C17\<10\> (offset_node\+ net023\<5\>) capacitor \
        c=0.0592797f*nf_cap*nf_cap
    C17\<9\> (offset_node\+ net023\<6\>) capacitor \
        c=0.0592797f*nf_cap*nf_cap
    C17\<8\> (offset_node\+ net023\<7\>) capacitor \
        c=0.0592797f*nf_cap*nf_cap
    C17\<7\> (offset_node\+ net023\<8\>) capacitor \
        c=0.0592797f*nf_cap*nf_cap
    C17\<6\> (offset_node\+ net023\<9\>) capacitor \
        c=0.0592797f*nf_cap*nf_cap
    C17\<5\> (offset_node\+ net023\<10\>) capacitor \
        c=0.0592797f*nf_cap*nf_cap
    C17\<4\> (offset_node\+ net023\<11\>) capacitor \
        c=0.0592797f*nf_cap*nf_cap
    C17\<3\> (offset_node\+ net023\<12\>) capacitor \
        c=0.0592797f*nf_cap*nf_cap
    C17\<2\> (offset_node\+ net023\<13\>) capacitor \
        c=0.0592797f*nf_cap*nf_cap
    C17\<1\> (offset_node\+ net023\<14\>) capacitor \
        c=0.0592797f*nf_cap*nf_cap
    C17\<0\> (offset_node\+ net023\<15\>) capacitor \
        c=0.0592797f*nf_cap*nf_cap
    C16\<7\> (offset_node\+ net021\<0\>) capacitor \
        c=0.0592797f*nf_cap*nf_cap
    C16\<6\> (offset_node\+ net021\<1\>) capacitor \
        c=0.0592797f*nf_cap*nf_cap
    C16\<5\> (offset_node\+ net021\<2\>) capacitor \
        c=0.0592797f*nf_cap*nf_cap
    C16\<4\> (offset_node\+ net021\<3\>) capacitor \
        c=0.0592797f*nf_cap*nf_cap
    C16\<3\> (offset_node\+ net021\<4\>) capacitor \
        c=0.0592797f*nf_cap*nf_cap
    C16\<2\> (offset_node\+ net021\<5\>) capacitor \
        c=0.0592797f*nf_cap*nf_cap
    C16\<1\> (offset_node\+ net021\<6\>) capacitor \
        c=0.0592797f*nf_cap*nf_cap
    C16\<0\> (offset_node\+ net021\<7\>) capacitor \
        c=0.0592797f*nf_cap*nf_cap
    C15\<3\> (offset_node\+ net019\<0\>) capacitor \
        c=0.0592797f*nf_cap*nf_cap
    C15\<2\> (offset_node\+ net019\<1\>) capacitor \
        c=0.0592797f*nf_cap*nf_cap
    C15\<1\> (offset_node\+ net019\<2\>) capacitor \
        c=0.0592797f*nf_cap*nf_cap
    C15\<0\> (offset_node\+ net019\<3\>) capacitor \
        c=0.0592797f*nf_cap*nf_cap
    C14\<1\> (offset_node\+ net017\<0\>) capacitor \
        c=0.0592797f*nf_cap*nf_cap
    C14\<0\> (offset_node\+ net017\<1\>) capacitor \
        c=0.0592797f*nf_cap*nf_cap
    C6 (offset_node\+ net6) capacitor c=0.0592797f*nf_cap*nf_cap
    M1\<1\> (net031\<0\> IL_gnd IL_gnd IL_gnd) nmos l=60n w=120.0n m=1 \
        nf=1 
    M1\<0\> (net031\<1\> IL_gnd IL_gnd IL_gnd) nmos l=60n w=120.0n m=1 \
        nf=1 
    M13\<31\> (net024\<0\> dtc_offset_m\<5\> IL_gnd IL_gnd) nmos l=60n \
        w=120.0n m=1 nf=1 
    M13\<30\> (net024\<1\> dtc_offset_m\<5\> IL_gnd IL_gnd) nmos l=60n \
        w=120.0n m=1 nf=1 
    M13\<29\> (net024\<2\> dtc_offset_m\<5\> IL_gnd IL_gnd) nmos l=60n \
        w=120.0n m=1 nf=1 
    M13\<28\> (net024\<3\> dtc_offset_m\<5\> IL_gnd IL_gnd) nmos l=60n \
        w=120.0n m=1 nf=1 
    M13\<27\> (net024\<4\> dtc_offset_m\<5\> IL_gnd IL_gnd) nmos l=60n \
        w=120.0n m=1 nf=1 
    M13\<26\> (net024\<5\> dtc_offset_m\<5\> IL_gnd IL_gnd) nmos l=60n \
        w=120.0n m=1 nf=1 
    M13\<25\> (net024\<6\> dtc_offset_m\<5\> IL_gnd IL_gnd) nmos l=60n \
        w=120.0n m=1 nf=1 
    M13\<24\> (net024\<7\> dtc_offset_m\<5\> IL_gnd IL_gnd) nmos l=60n \
        w=120.0n m=1 nf=1
    M13\<23\> (net024\<8\> dtc_offset_m\<5\> IL_gnd IL_gnd) nmos l=60n \
        w=120.0n m=1 nf=1 
    M13\<22\> (net024\<9\> dtc_offset_m\<5\> IL_gnd IL_gnd) nmos l=60n \
        w=120.0n m=1 nf=1
    M13\<21\> (net024\<10\> dtc_offset_m\<5\> IL_gnd IL_gnd) nmos l=60n \
        w=120.0n m=1 nf=1 
    M13\<20\> (net024\<11\> dtc_offset_m\<5\> IL_gnd IL_gnd) nmos l=60n \
        w=120.0n m=1 nf=1 
    M13\<19\> (net024\<12\> dtc_offset_m\<5\> IL_gnd IL_gnd) nmos l=60n \
        w=120.0n m=1 nf=1 
    M13\<18\> (net024\<13\> dtc_offset_m\<5\> IL_gnd IL_gnd) nmos l=60n \
        w=120.0n m=1 nf=1 
    M13\<17\> (net024\<14\> dtc_offset_m\<5\> IL_gnd IL_gnd) nmos l=60n \
        w=120.0n m=1 nf=1 
    M13\<16\> (net024\<15\> dtc_offset_m\<5\> IL_gnd IL_gnd) nmos l=60n \
        w=120.0n m=1 nf=1 
    M13\<15\> (net024\<16\> dtc_offset_m\<5\> IL_gnd IL_gnd) nmos l=60n \
        w=120.0n m=1 nf=1 
    M13\<14\> (net024\<17\> dtc_offset_m\<5\> IL_gnd IL_gnd) nmos l=60n \
        w=120.0n m=1 nf=1 
    M13\<13\> (net024\<18\> dtc_offset_m\<5\> IL_gnd IL_gnd) nmos l=60n \
        w=120.0n m=1 nf=1 
    M13\<12\> (net024\<19\> dtc_offset_m\<5\> IL_gnd IL_gnd) nmos l=60n \
        w=120.0n m=1 nf=1 
    M13\<11\> (net024\<20\> dtc_offset_m\<5\> IL_gnd IL_gnd) nmos l=60n \
        w=120.0n m=1 nf=1 
    M13\<10\> (net024\<21\> dtc_offset_m\<5\> IL_gnd IL_gnd) nmos l=60n \
        w=120.0n m=1 nf=1 
    M13\<9\> (net024\<22\> dtc_offset_m\<5\> IL_gnd IL_gnd) nmos l=60n \
        w=120.0n m=1 nf=1 
    M13\<8\> (net024\<23\> dtc_offset_m\<5\> IL_gnd IL_gnd) nmos l=60n \
        w=120.0n m=1 nf=1 
    M13\<7\> (net024\<24\> dtc_offset_m\<5\> IL_gnd IL_gnd) nmos l=60n \
        w=120.0n m=1 nf=1 
    M13\<6\> (net024\<25\> dtc_offset_m\<5\> IL_gnd IL_gnd) nmos l=60n \
        w=120.0n m=1 nf=1 
    M13\<5\> (net024\<26\> dtc_offset_m\<5\> IL_gnd IL_gnd) nmos l=60n \
        w=120.0n m=1 nf=1 
    M13\<4\> (net024\<27\> dtc_offset_m\<5\> IL_gnd IL_gnd) nmos l=60n \
        w=120.0n m=1 nf=1 
    M13\<3\> (net024\<28\> dtc_offset_m\<5\> IL_gnd IL_gnd) nmos l=60n \
        w=120.0n m=1 nf=1 
    M13\<2\> (net024\<29\> dtc_offset_m\<5\> IL_gnd IL_gnd) nmos l=60n \
        w=120.0n m=1 nf=1 
    M13\<1\> (net024\<30\> dtc_offset_m\<5\> IL_gnd IL_gnd) nmos l=60n \
        w=120.0n m=1 nf=1 
    M13\<0\> (net024\<31\> dtc_offset_m\<5\> IL_gnd IL_gnd) nmos l=60n \
        w=120.0n m=1 nf=1 
    M14\<31\> (net026\<0\> dtc_offset_m\<5\> IL_gnd IL_gnd) nmos l=60n \
        w=120.0n m=1 nf=1 
    M14\<30\> (net026\<1\> dtc_offset_m\<5\> IL_gnd IL_gnd) nmos l=60n \
        w=120.0n m=1 nf=1 
    M14\<29\> (net026\<2\> dtc_offset_m\<5\> IL_gnd IL_gnd) nmos l=60n \
        w=120.0n m=1 nf=1 
    M14\<28\> (net026\<3\> dtc_offset_m\<5\> IL_gnd IL_gnd) nmos l=60n \
        w=120.0n m=1 nf=1 
    M14\<27\> (net026\<4\> dtc_offset_m\<5\> IL_gnd IL_gnd) nmos l=60n \
        w=120.0n m=1 nf=1 
    M14\<26\> (net026\<5\> dtc_offset_m\<5\> IL_gnd IL_gnd) nmos l=60n \
        w=120.0n m=1 nf=1 
    M14\<25\> (net026\<6\> dtc_offset_m\<5\> IL_gnd IL_gnd) nmos l=60n \
        w=120.0n m=1 nf=1 
    M14\<24\> (net026\<7\> dtc_offset_m\<5\> IL_gnd IL_gnd) nmos l=60n \
        w=120.0n m=1 nf=1 
    M14\<23\> (net026\<8\> dtc_offset_m\<5\> IL_gnd IL_gnd) nmos l=60n \
        w=120.0n m=1 nf=1 
    M14\<22\> (net026\<9\> dtc_offset_m\<5\> IL_gnd IL_gnd) nmos l=60n \
        w=120.0n m=1 nf=1 
    M14\<21\> (net026\<10\> dtc_offset_m\<5\> IL_gnd IL_gnd) nmos l=60n \
        w=120.0n m=1 nf=1 
    M14\<20\> (net026\<11\> dtc_offset_m\<5\> IL_gnd IL_gnd) nmos l=60n \
        w=120.0n m=1 nf=1 
    M14\<19\> (net026\<12\> dtc_offset_m\<5\> IL_gnd IL_gnd) nmos l=60n \
        w=120.0n m=1 nf=1 
    M14\<18\> (net026\<13\> dtc_offset_m\<5\> IL_gnd IL_gnd) nmos l=60n \
        w=120.0n m=1 nf=1 
    M14\<17\> (net026\<14\> dtc_offset_m\<5\> IL_gnd IL_gnd) nmos l=60n \
        w=120.0n m=1 nf=1 
    M14\<16\> (net026\<15\> dtc_offset_m\<5\> IL_gnd IL_gnd) nmos l=60n \
        w=120.0n m=1 nf=1 
    M14\<15\> (net026\<16\> dtc_offset_m\<5\> IL_gnd IL_gnd) nmos l=60n \
        w=120.0n m=1 nf=1 
    M14\<14\> (net026\<17\> dtc_offset_m\<5\> IL_gnd IL_gnd) nmos l=60n \
        w=120.0n m=1 nf=1 
    M14\<13\> (net026\<18\> dtc_offset_m\<5\> IL_gnd IL_gnd) nmos l=60n \
        w=120.0n m=1 nf=1 
    M14\<12\> (net026\<19\> dtc_offset_m\<5\> IL_gnd IL_gnd) nmos l=60n \
        w=120.0n m=1 nf=1 
    M14\<11\> (net026\<20\> dtc_offset_m\<5\> IL_gnd IL_gnd) nmos l=60n \
        w=120.0n m=1 nf=1 
    M14\<10\> (net026\<21\> dtc_offset_m\<5\> IL_gnd IL_gnd) nmos l=60n \
        w=120.0n m=1 nf=1 
    M14\<9\> (net026\<22\> dtc_offset_m\<5\> IL_gnd IL_gnd) nmos l=60n \
        w=120.0n m=1 nf=1 
    M14\<8\> (net026\<23\> dtc_offset_m\<5\> IL_gnd IL_gnd) nmos l=60n \
        w=120.0n m=1 nf=1 
    M14\<7\> (net026\<24\> dtc_offset_m\<5\> IL_gnd IL_gnd) nmos l=60n \
        w=120.0n m=1 nf=1 
    M14\<6\> (net026\<25\> dtc_offset_m\<5\> IL_gnd IL_gnd) nmos l=60n \
        w=120.0n m=1 nf=1 
    M14\<5\> (net026\<26\> dtc_offset_m\<5\> IL_gnd IL_gnd) nmos l=60n \
        w=120.0n m=1 nf=1 
    M14\<4\> (net026\<27\> dtc_offset_m\<5\> IL_gnd IL_gnd) nmos l=60n \
        w=120.0n m=1 nf=1 
    M14\<3\> (net026\<28\> dtc_offset_m\<5\> IL_gnd IL_gnd) nmos l=60n \
        w=120.0n m=1 nf=1 
    M14\<2\> (net026\<29\> dtc_offset_m\<5\> IL_gnd IL_gnd) nmos l=60n \
        w=120.0n m=1 nf=1 
    M14\<1\> (net026\<30\> dtc_offset_m\<5\> IL_gnd IL_gnd) nmos l=60n \
        w=120.0n m=1 nf=1 
    M14\<0\> (net026\<31\> dtc_offset_m\<5\> IL_gnd IL_gnd) nmos l=60n \
        w=120.0n m=1 nf=1
    M10\<15\> (net023\<0\> dtc_offset_m\<4\> IL_gnd IL_gnd) nmos l=60n \
        w=120.0n m=1 nf=1 
    M10\<14\> (net023\<1\> dtc_offset_m\<4\> IL_gnd IL_gnd) nmos l=60n \
        w=120.0n m=1 nf=1 
    M10\<13\> (net023\<2\> dtc_offset_m\<4\> IL_gnd IL_gnd) nmos l=60n \
        w=120.0n m=1 nf=1 
    M10\<12\> (net023\<3\> dtc_offset_m\<4\> IL_gnd IL_gnd) nmos l=60n \
        w=120.0n m=1 nf=1
    M10\<11\> (net023\<4\> dtc_offset_m\<4\> IL_gnd IL_gnd) nmos l=60n \
        w=120.0n m=1 nf=1 
    M10\<10\> (net023\<5\> dtc_offset_m\<4\> IL_gnd IL_gnd) nmos l=60n \
        w=120.0n m=1 nf=1 
    M10\<9\> (net023\<6\> dtc_offset_m\<4\> IL_gnd IL_gnd) nmos l=60n \
        w=120.0n m=1 nf=1 
    M10\<8\> (net023\<7\> dtc_offset_m\<4\> IL_gnd IL_gnd) nmos l=60n \
        w=120.0n m=1 nf=1 
    M10\<7\> (net023\<8\> dtc_offset_m\<4\> IL_gnd IL_gnd) nmos l=60n \
        w=120.0n m=1 nf=1 
    M10\<6\> (net023\<9\> dtc_offset_m\<4\> IL_gnd IL_gnd) nmos l=60n \
        w=120.0n m=1 nf=1 
    M10\<5\> (net023\<10\> dtc_offset_m\<4\> IL_gnd IL_gnd) nmos l=60n \
        w=120.0n m=1 nf=1 
    M10\<4\> (net023\<11\> dtc_offset_m\<4\> IL_gnd IL_gnd) nmos l=60n \
        w=120.0n m=1 nf=1 
    M10\<3\> (net023\<12\> dtc_offset_m\<4\> IL_gnd IL_gnd) nmos l=60n \
        w=120.0n m=1 nf=1 
    M10\<2\> (net023\<13\> dtc_offset_m\<4\> IL_gnd IL_gnd) nmos l=60n \
        w=120.0n m=1 nf=1 
    M10\<1\> (net023\<14\> dtc_offset_m\<4\> IL_gnd IL_gnd) nmos l=60n \
        w=120.0n m=1 nf=1 
    M10\<0\> (net023\<15\> dtc_offset_m\<4\> IL_gnd IL_gnd) nmos l=60n \
        w=120.0n m=1 nf=1 
    M11\<15\> (net022\<0\> dtc_offset_m\<4\> IL_gnd IL_gnd) nmos l=60n \
        w=120.0n m=1 nf=1 
    M11\<14\> (net022\<1\> dtc_offset_m\<4\> IL_gnd IL_gnd) nmos l=60n \
        w=120.0n m=1 nf=1 
    M11\<13\> (net022\<2\> dtc_offset_m\<4\> IL_gnd IL_gnd) nmos l=60n \
        w=120.0n m=1 nf=1 
    M11\<12\> (net022\<3\> dtc_offset_m\<4\> IL_gnd IL_gnd) nmos l=60n \
        w=120.0n m=1 nf=1 
    M11\<11\> (net022\<4\> dtc_offset_m\<4\> IL_gnd IL_gnd) nmos l=60n \
        w=120.0n m=1 nf=1 
    M11\<10\> (net022\<5\> dtc_offset_m\<4\> IL_gnd IL_gnd) nmos l=60n \
        w=120.0n m=1 nf=1 
    M11\<9\> (net022\<6\> dtc_offset_m\<4\> IL_gnd IL_gnd) nmos l=60n \
        w=120.0n m=1 nf=1 
    M11\<8\> (net022\<7\> dtc_offset_m\<4\> IL_gnd IL_gnd) nmos l=60n \
        w=120.0n m=1 nf=1 
    M11\<7\> (net022\<8\> dtc_offset_m\<4\> IL_gnd IL_gnd) nmos l=60n \
        w=120.0n m=1 nf=1 
    M11\<6\> (net022\<9\> dtc_offset_m\<4\> IL_gnd IL_gnd) nmos l=60n \
        w=120.0n m=1 nf=1 
    M11\<5\> (net022\<10\> dtc_offset_m\<4\> IL_gnd IL_gnd) nmos l=60n \
        w=120.0n m=1 nf=1 
    M11\<4\> (net022\<11\> dtc_offset_m\<4\> IL_gnd IL_gnd) nmos l=60n \
        w=120.0n m=1 nf=1 
    M11\<3\> (net022\<12\> dtc_offset_m\<4\> IL_gnd IL_gnd) nmos l=60n \
        w=120.0n m=1 nf=1 
    M11\<2\> (net022\<13\> dtc_offset_m\<4\> IL_gnd IL_gnd) nmos l=60n \
        w=120.0n m=1 nf=1 
    M11\<1\> (net022\<14\> dtc_offset_m\<4\> IL_gnd IL_gnd) nmos l=60n \
        w=120.0n m=1 nf=1 
    M11\<0\> (net022\<15\> dtc_offset_m\<4\> IL_gnd IL_gnd) nmos l=60n \
        w=120.0n m=1 nf=1 
    M6\<3\> (net018\<0\> dtc_offset_m\<2\> IL_gnd IL_gnd) nmos l=60n \
        w=120.0n m=1 nf=1 
    M6\<2\> (net018\<1\> dtc_offset_m\<2\> IL_gnd IL_gnd) nmos l=60n \
        w=120.0n m=1 nf=1
    M6\<1\> (net018\<2\> dtc_offset_m\<2\> IL_gnd IL_gnd) nmos l=60n \
        w=120.0n m=1 nf=1 
    M6\<0\> (net018\<3\> dtc_offset_m\<2\> IL_gnd IL_gnd) nmos l=60n \
        w=120.0n m=1 nf=1 
    M3\<1\> (net017\<0\> dtc_offset_m\<1\> IL_gnd IL_gnd) nmos l=60n \
        w=120.0n m=1 nf=1 
    M3\<0\> (net017\<1\> dtc_offset_m\<1\> IL_gnd IL_gnd) nmos l=60n \
        w=120.0n m=1 nf=1 
    M8\<7\> (net021\<0\> dtc_offset_m\<3\> IL_gnd IL_gnd) nmos l=60n \
        w=120.0n m=1 nf=1 
    M8\<6\> (net021\<1\> dtc_offset_m\<3\> IL_gnd IL_gnd) nmos l=60n \
        w=120.0n m=1 nf=1 
    M8\<5\> (net021\<2\> dtc_offset_m\<3\> IL_gnd IL_gnd) nmos l=60n \
        w=120.0n m=1 nf=1 
    M8\<4\> (net021\<3\> dtc_offset_m\<3\> IL_gnd IL_gnd) nmos l=60n \
        w=120.0n m=1 nf=1 
    M8\<3\> (net021\<4\> dtc_offset_m\<3\> IL_gnd IL_gnd) nmos l=60n \
        w=120.0n m=1 nf=1 
    M8\<2\> (net021\<5\> dtc_offset_m\<3\> IL_gnd IL_gnd) nmos l=60n \
        w=120.0n m=1 nf=1 
    M8\<1\> (net021\<6\> dtc_offset_m\<3\> IL_gnd IL_gnd) nmos l=60n \
        w=120.0n m=1 nf=1
    M8\<0\> (net021\<7\> dtc_offset_m\<3\> IL_gnd IL_gnd) nmos l=60n \
        w=120.0n m=1 nf=1 
    M16\<3\> (net019\<0\> dtc_offset_m\<2\> IL_gnd IL_gnd) nmos l=60n \
        w=120.0n m=1 nf=1 
    M16\<2\> (net019\<1\> dtc_offset_m\<2\> IL_gnd IL_gnd) nmos l=60n \
        w=120.0n m=1 nf=1 
    M16\<1\> (net019\<2\> dtc_offset_m\<2\> IL_gnd IL_gnd) nmos l=60n \
        w=120.0n m=1 nf=1 
    M16\<0\> (net019\<3\> dtc_offset_m\<2\> IL_gnd IL_gnd) nmos l=60n \
        w=120.0n m=1 nf=1 
    M4\<1\> (net016\<0\> dtc_offset_m\<1\> IL_gnd IL_gnd) nmos l=60n \
        w=120.0n m=1 nf=1 
    M4\<0\> (net016\<1\> dtc_offset_m\<1\> IL_gnd IL_gnd) nmos l=60n \
        w=120.0n m=1 nf=1 
    M15 (net025 dtc_offset_m\<0\> IL_gnd IL_gnd) nmos l=60n w=120.0n \
        m=1 nf=1
    M2 (net6 dtc_offset_m\<0\> IL_gnd IL_gnd) nmos l=60n w=120.0n m=1 \
        nf=1 
    M7\<7\> (net020\<0\> dtc_offset_m\<3\> IL_gnd IL_gnd) nmos l=60n \
        w=120.0n m=1 nf=1
    M7\<6\> (net020\<1\> dtc_offset_m\<3\> IL_gnd IL_gnd) nmos l=60n \
        w=120.0n m=1 nf=1 
    M7\<5\> (net020\<2\> dtc_offset_m\<3\> IL_gnd IL_gnd) nmos l=60n \
        w=120.0n m=1 nf=1
    M7\<4\> (net020\<3\> dtc_offset_m\<3\> IL_gnd IL_gnd) nmos l=60n \
        w=120.0n m=1 nf=1 
    M7\<3\> (net020\<4\> dtc_offset_m\<3\> IL_gnd IL_gnd) nmos l=60n \
        w=120.0n m=1 nf=1 
    M7\<2\> (net020\<5\> dtc_offset_m\<3\> IL_gnd IL_gnd) nmos l=60n \
        w=120.0n m=1 nf=1
    M7\<1\> (net020\<6\> dtc_offset_m\<3\> IL_gnd IL_gnd) nmos l=60n \
        w=120.0n m=1 nf=1 
    M7\<0\> (net020\<7\> dtc_offset_m\<3\> IL_gnd IL_gnd) nmos l=60n \
        w=120.0n m=1 nf=1 
ends DTC_offset_v3_schematic
// End of subcircuit definition.

// Library name: posh_test_circuits
// Cell name: refclk_tree_current_Ring_PNinj_CML1_coarse
// View name: schematic
subckt refclk_tree_current_Ring_PNinj_CML1_coarse_schematic IL_gnd IL_vdd \
        PN_CML_bias_300u_inject PN_CML_bias_300u_pside dtc_gain_m\<5\> \
        dtc_gain_m\<4\> dtc_gain_m\<3\> dtc_gain_m\<2\> dtc_gain_m\<1\> \
        dtc_gain_m\<0\>
    M3 (net18 PN_CML_bias_300u_pside IL_gnd IL_gnd) nmos l=200n w=8u \
        m=1 nf=2 
    M4 (PN_CML_bias_300u_pside PN_CML_bias_300u_pside IL_gnd IL_gnd) \
        nmos l=200n w=8u m=1 nf=2 
    M1 (IL_gnd PN_CML_bias_300u_pside IL_gnd IL_gnd) nmos l=200n \
        w=24.0u m=1 nf=6
    M59 (1 net18 IL_vdd IL_vdd) pmos l=200n w=300n m=1 nf=1 
    M58 (2 net18 IL_vdd IL_vdd) pmos l=200n w=600n m=1 nf=2 
    M57 (4 net18 IL_vdd IL_vdd) pmos l=200n w=1.2u m=1 nf=4 
    M56 (net068 net18 IL_vdd IL_vdd) pmos l=200n w=2.4u m=1 nf=8 
    M38 (PN_CML_bias_300u_inject dtc_gain_m\<3\> net068 IL_vdd) pmos \
        l=200n w=2.4u m=1 nf=8 
    M42 (PN_CML_bias_300u_inject dtc_gain_m\<1\> 2 IL_vdd) pmos l=200n \
        w=600n m=1 nf=2 
    M45 (IL_vdd IL_vdd IL_vdd IL_vdd) pmos l=200n w=7.5u m=1 nf=25 
    M46 (4 IL_vdd IL_vdd IL_vdd) pmos l=200n w=600n m=1 nf=2 
    M48 (2 IL_vdd IL_vdd IL_vdd) pmos l=200n w=600n m=1 nf=2 
    M49 (PN_CML_bias_300u_inject IL_vdd IL_vdd IL_vdd) pmos l=200n \
        w=900n m=1 nf=3 
    M54 (net070 net18 IL_vdd IL_vdd) pmos l=200n w=9.6u m=1 nf=32 
    M52 (1 IL_vdd IL_vdd IL_vdd) pmos l=200n w=600n m=1 nf=2 
    M24 (PN_CML_bias_300u_inject dtc_gain_m\<5\> net070 IL_vdd) pmos \
        l=200n w=9.6u m=1 nf=32 
    M25 (PN_CML_bias_300u_inject dtc_gain_m\<4\> net069 IL_vdd) pmos \
        l=200n w=4.8u m=1 nf=16 
    M55 (net069 net18 IL_vdd IL_vdd) pmos l=200n w=4.8u m=1 nf=16
    M10 (IL_vdd net18 IL_vdd IL_vdd) pmos l=200n w=24.0u m=1 nf=6 
    M43 (PN_CML_bias_300u_inject dtc_gain_m\<0\> 1 IL_vdd) pmos l=200n \
        w=300n m=1 nf=1 
    M5 (PN_CML_bias_300u_inject net18 IL_vdd IL_vdd) pmos l=200n w=8u \
        m=1 nf=2 
    M2 (net18 net18 IL_vdd IL_vdd) pmos l=200n w=8u m=1 nf=2 
    M39 (PN_CML_bias_300u_inject dtc_gain_m\<2\> 4 IL_vdd) pmos l=200n \
        w=1.2u m=1 nf=4 
ends refclk_tree_current_Ring_PNinj_CML1_coarse_schematic
// End of subcircuit definition.

// Library name: posh_test_circuits
// Cell name: differential_cml_RingDPLL_v1
// View name: schematic
subckt differential_cml_RingDPLL_v1_schematic REFinj_bias gnd out\+ out\- \
        vdd vin\+ vin\-
    M5 (net4 REFinj_bias gnd gnd) nmos l=200n w=96.0u m=1 nf=24 
    M11 (REFinj_bias gnd gnd gnd) nmos l=200n w=8u m=1 nf=2 
    M6 (REFinj_bias REFinj_bias gnd gnd) nmos l=200n w=8u m=1 nf=2 
    M2 (out\- vin\+ net4 gnd) nmos l=60n w=4e-06*nf_dif m=1 nf=nf_dif 
        sa=175.00n sb=175.00n sca=0 scb=0 scc=0
    M4 (out\+ vin\- net4 gnd) nmos l=60n w=4e-06*nf_dif m=1 nf=nf_dif
    R3 (net6 out\+) resistor r=res
    R2 (out\- net6) resistor r=res
    M0 (out\+ net6 vdd vdd) pmos l=60n w=4e-06*nf_load m=1 nf=nf_load 
    M1 (out\- net6 vdd vdd) pmos l=60n w=4e-06*nf_load m=1 nf=nf_load 
ends differential_cml_RingDPLL_v1_schematic
// End of subcircuit definition.

// Library name: posh_test_circuits
// Cell name: DTC_df_map_v3
// View name: schematic
subckt DTC_df_map_v3_schematic IL_gnd dfmap_node\+ dfmap_node\- \
        phi_df_frac_retimed\<63\> phi_df_frac_retimed\<62\> \
        phi_df_frac_retimed\<61\> phi_df_frac_retimed\<60\> \
        phi_df_frac_retimed\<59\> phi_df_frac_retimed\<58\> \
        phi_df_frac_retimed\<57\> phi_df_frac_retimed\<56\> \
        phi_df_frac_retimed\<55\> phi_df_frac_retimed\<54\> \
        phi_df_frac_retimed\<53\> phi_df_frac_retimed\<52\> \
        phi_df_frac_retimed\<51\> phi_df_frac_retimed\<50\> \
        phi_df_frac_retimed\<49\> phi_df_frac_retimed\<48\> \
        phi_df_frac_retimed\<47\> phi_df_frac_retimed\<46\> \
        phi_df_frac_retimed\<45\> phi_df_frac_retimed\<44\> \
        phi_df_frac_retimed\<43\> phi_df_frac_retimed\<42\> \
        phi_df_frac_retimed\<41\> phi_df_frac_retimed\<40\> \
        phi_df_frac_retimed\<39\> phi_df_frac_retimed\<38\> \
        phi_df_frac_retimed\<37\> phi_df_frac_retimed\<36\> \
        phi_df_frac_retimed\<35\> phi_df_frac_retimed\<34\> \
        phi_df_frac_retimed\<33\> phi_df_frac_retimed\<32\> \
        phi_df_frac_retimed\<31\> phi_df_frac_retimed\<30\> \
        phi_df_frac_retimed\<29\> phi_df_frac_retimed\<28\> \
        phi_df_frac_retimed\<27\> phi_df_frac_retimed\<26\> \
        phi_df_frac_retimed\<25\> phi_df_frac_retimed\<24\> \
        phi_df_frac_retimed\<23\> phi_df_frac_retimed\<22\> \
        phi_df_frac_retimed\<21\> phi_df_frac_retimed\<20\> \
        phi_df_frac_retimed\<19\> phi_df_frac_retimed\<18\> \
        phi_df_frac_retimed\<17\> phi_df_frac_retimed\<16\> \
        phi_df_frac_retimed\<15\> phi_df_frac_retimed\<14\> \
        phi_df_frac_retimed\<13\> phi_df_frac_retimed\<12\> \
        phi_df_frac_retimed\<11\> phi_df_frac_retimed\<10\> \
        phi_df_frac_retimed\<9\> phi_df_frac_retimed\<8\> \
        phi_df_frac_retimed\<7\> phi_df_frac_retimed\<6\> \